*Heading
** Job name: Job-4 Model name: weave2D
** Generated by: Abaqus/CAE 6.13-3
*Preprint, echo=NO, model=NO, history=NO, contact=NO
**
** PARTS
**
*Part, name=inclusionP3
*Node
      1,           0.,  0.457078159,           0.
      2,           0., -0.457078159,           0.
      3,         -0.5,         -0.5,          0.5
      4,         -0.5,          0.5,          0.5
      5,         -0.5,          0.5,         -0.5
      6,         -0.5,         -0.5,         -0.5
      7,          0.5,          0.5,          0.5
      8,          0.5,          0.5,         -0.5
      9,          0.5,         -0.5,         -0.5
     10,          0.5,         -0.5,          0.5
     11,  0.101709455,  0.445618242,           0.
     12,  0.198318779,   0.41181317,           0.
     13,  0.284983575,  0.357358098,           0.
     14,  0.357358098,  0.284983575,           0.
     15,   0.41181317,  0.198318779,           0.
     16,  0.445618242,  0.101709455,           0.
     17,  0.457078159,           0.,           0.
     18,  0.445618242, -0.101709455,           0.
     19,   0.41181317, -0.198318779,           0.
     20,  0.357358098, -0.284983575,           0.
** ... 1822 like lines cut
*Element, type=C3D4
   1,  954,  955,  956,  957
   2,  958,  366,  959,  358
   3,  960,  961,  962,  963
   4,  964,  375,  959,  374
   5,  375,  959,  374,  358
   6,  965,  954,  966,  967
   7,  954,  967,  961,  968
   8,  969,  965,  966,  970
   9,  969,  954,  971,  966
  10,  969,  972,  970,  971
  11,  969,  973,  974,  971
  12,  975,  976,  977,  978
  13,  979,  443,  442,  450
  14,  975,  980,  981,  978
  15,  982,  980,  983,  984
  16,  980,  983,  984,  975
  17,  975,  984,  985,  983
  18,  986,  962,  987,  976
  19,  986,  988,  989,  976
  20,  986,  990,  955,  962
** ... 9071 like lines cut
*Nset, nset=Matrix_section
    1,    2,    3,    4,    5,    6,    7,    8,    9,   10,   11,   12,   13,   14,   15,   16
   17,   18,   19,   20,   21,   22,   23,   24,   25,   26,   27,   28,   29,   30,   31,   32
   33,   34,   35,   36,   37,   38,   39,   40,   41,   42,   43,   44,   45,   46,   47,   48
   49,   50,   51,   52,   53,   54,   55,   56,   57,   58,   59,   60,   61,   62,   63,   64
   65,   66,   67,   68,   69,   70,   71,   72,   73,   74,   75,   76,   77,   78,   79,   80
   81,   82,   83,   84,   85,   86,   87,   88,   89,   90,   91,   92,   93,   94,   95,   96
   97,   98,   99,  100,  101,  102,  103,  104,  105,  106,  107,  108,  109,  110,  111,  112
  113,  114,  115,  116,  117,  118,  119,  120,  121,  122,  123,  124,  125,  126,  127,  128
  129,  130,  131,  132,  133,  134,  135,  136,  137,  138,  139,  140,  141,  142,  143,  144
  145,  146,  147,  148,  149,  150,  151,  152,  153,  154,  155,  156,  157,  158,  159,  160
  161,  162,  163,  164,  165,  166,  167,  168,  169,  170,  171,  172,  173,  174,  175,  176
  177,  178,  179,  180,  181,  182,  183,  184,  185,  186,  187,  188,  189,  190,  191,  192
  193,  194,  195,  196,  197,  198,  199,  200,  201,  202,  203,  204,  205,  206,  207,  208
  209,  210,  211,  212,  213,  214,  215,  216,  217,  218,  219,  220,  221,  222,  223,  224
  225,  226,  227,  228,  229,  230,  231,  232,  233,  234,  235,  236,  237,  238,  239,  240
  241,  242,  243,  244,  245,  246,  247,  248,  249,  250,  251,  252,  253,  254,  255,  256
  257,  258,  259,  260,  261,  262,  263,  264,  265,  266,  267,  268,  269,  270,  271,  272
  273,  274,  275,  276,  277,  278,  279,  280,  281,  282,  283,  284,  285,  286,  287,  288
  289,  290,  291,  292,  293,  294,  295,  296,  297,  298,  299,  300,  301,  302,  303,  304
  305,  306,  307,  308,  309,  310,  311,  312,  313,  314,  315,  316,  317,  318,  319,  320
** ... 65 like lines cut
*Elset, elset=Matrix_section, generate
 3853,  9091,     1
*Nset, nset=Inclusion_section
    1,    2,   11,   12,   13,   14,   15,   16,   17,   18,   19,   20,   21,   22,   23,  132
  133,  134,  135,  136,  137,  138,  139,  140,  141,  142,  143,  144,  145,  146,  147,  148
  149,  150,  151,  152,  153,  154,  155,  156,  157,  158,  159,  160,  161,  162,  163,  164
  165,  166,  167,  168,  169,  170,  171,  172,  173,  174,  175,  176,  177,  178,  179,  180
  181,  182,  183,  184,  185,  186,  187,  188,  189,  190,  191,  192,  193,  194,  195,  196
  197,  198,  199,  200,  201,  202,  203,  204,  205,  206,  207,  208,  209,  210,  211,  212
  213,  214,  215,  216,  217,  218,  219,  220,  221,  222,  223,  224,  225,  226,  227,  228
  229,  230,  231,  232,  233,  234,  235,  236,  237,  238,  239,  240,  241,  242,  243,  244
  245,  246,  247,  248,  249,  250,  251,  252,  253,  254,  255,  256,  257,  258,  259,  260
  261,  262,  263,  264,  265,  266,  267,  268,  269,  270,  271,  272,  273,  274,  275,  276
  277,  278,  279,  280,  281,  282,  283,  284,  285,  286,  287,  288,  289,  290,  291,  292
  293,  294,  295,  296,  297,  298,  299,  300,  301,  302,  303,  304,  305,  306,  307,  308
  309,  310,  311,  312,  313,  314,  315,  316,  317,  318,  319,  320,  321,  322,  323,  324
  325,  326,  327,  328,  329,  330,  331,  332,  333,  334,  335,  336,  337,  338,  339,  340
  341,  342,  343,  344,  345,  346,  347,  348,  349,  350,  351,  352,  353,  354,  355,  356
  357,  358,  359,  360,  361,  362,  363,  364,  365,  366,  367,  368,  369,  370,  371,  372
  373,  374,  375,  376,  377,  378,  379,  380,  381,  382,  383,  384,  385,  386,  387,  388
  389,  390,  391,  392,  393,  394,  395,  396,  397,  398,  399,  400,  401,  402,  403,  404
  405,  406,  407,  408,  409,  410,  411,  412,  413,  414,  415,  416,  417,  418,  419,  420
  421,  422,  423,  424,  425,  426,  427,  428,  429,  430,  431,  432,  433,  434,  435,  436
** ... 33 like lines cut
*Elset, elset=Inclusion_section, generate
    1,  3852,     1
** Section: Inclusion_section
*Solid Section, elset=Inclusion_section, material=MAT1
,
** Section: Matrix_section
*Solid Section, elset=Matrix_section, material=MAT0
,
*End Part
**  
**
** ASSEMBLY
**
*Assembly, name=Assembly
**  
*Instance, name=inclusionP3-1, part=inclusionP3
*End Instance
**  
** Constraint: Eqn-1
*Equation
3
MASTERNODE5, 3, 1.
MASTERNODE1, 3, -1.
CONSTRAINTSDRIVER2, 1, -0.22
** Constraint: Eqn-2
*Equation
3
MASTERNODE6, 3, 1.
MASTERNODE1, 3, -1.
CONSTRAINTSDRIVER2, 1, -0.22
** Constraint: Eqn-3
*Equation
3
MASTERNODE7, 3, 1.
MASTERNODE1, 3, -1.
CONSTRAINTSDRIVER2, 1, -0.22
** Constraint: Eqn-4
*Equation
3
MASTERNODE8, 3, 1.
MASTERNODE1, 3, -1.
CONSTRAINTSDRIVER2, 1, -0.22
** Constraint: Eqn-5
*Equation
2
MASTERNODE2, 3, 1.
MASTERNODE1, 3, -1.
** Constraint: Eqn-6
*Equation
2
MASTERNODE3, 3, 1.
MASTERNODE1, 3, -1.
** Constraint: Eqn-7
*Equation
2
MASTERNODE4, 3, 1.
MASTERNODE1, 3, -1.
** Constraint: Eqn-8
*Equation
3
MASTERNODE5, 2, 1.
MASTERNODE1, 2, -1.
CONSTRAINTSDRIVER5, 1, -0.22
** Constraint: Eqn-9
*Equation
3
MASTERNODE6, 2, 1.
MASTERNODE1, 2, -1.
CONSTRAINTSDRIVER5, 1, -0.22
** Constraint: Eqn-10
*Equation
4
MASTERNODE7, 2, 1.
MASTERNODE1, 2, -1.
CONSTRAINTSDRIVER1, 1, -2.
CONSTRAINTSDRIVER5, 1, -0.22
** Constraint: Eqn-11
*Equation
4
MASTERNODE8, 2, 1.
MASTERNODE1, 2, -1.
CONSTRAINTSDRIVER1, 1, -2.
CONSTRAINTSDRIVER5, 1, -0.22
** Constraint: Eqn-12
*Equation
3
MASTERNODE3, 2, 1.
MASTERNODE1, 2, -1.
CONSTRAINTSDRIVER1, 1, -2.
** Constraint: Eqn-13
*Equation
3
MASTERNODE4, 2, 1.
MASTERNODE1, 2, -1.
CONSTRAINTSDRIVER1, 1, -2.
** Constraint: Eqn-14
*Equation
2
MASTERNODE2, 2, 1.
MASTERNODE1, 2, -1.
** Constraint: Eqn-15
*Equation
4
MASTERNODE6, 1, 1.
MASTERNODE1, 1, -1.
CONSTRAINTSDRIVER4, 1, -0.22
CONSTRAINTSDRIVER0, 1, -2.
** Constraint: Eqn-16
*Equation
3
MASTERNODE5, 1, 1.
MASTERNODE1, 1, -1.
CONSTRAINTSDRIVER4, 1, -0.22
** Constraint: Eqn-17
*Equation
4
MASTERNODE8, 1, 1.
MASTERNODE1, 1, -1.
CONSTRAINTSDRIVER3, 1, -2.
CONSTRAINTSDRIVER4, 1, -0.22
** Constraint: Eqn-18
*Equation
3
MASTERNODE4, 1, 1.
MASTERNODE1, 1, -1.
CONSTRAINTSDRIVER3, 1, -2.
** Constraint: Eqn-19
*Equation
5
MASTERNODE7, 1, 1.
MASTERNODE1, 1, -1.
CONSTRAINTSDRIVER0, 1, -2.
CONSTRAINTSDRIVER4, 1, -0.22
CONSTRAINTSDRIVER3, 1, -2.
** Constraint: Eqn-20
*Equation
4
MASTERNODE3, 1, 1.
MASTERNODE1, 1, -1.
CONSTRAINTSDRIVER0, 1, -2.
CONSTRAINTSDRIVER3, 1, -2.
** Constraint: Eqn-21
*Equation
3
MASTERNODE2, 1, 1.
MASTERNODE1, 1, -1.
CONSTRAINTSDRIVER0, 1, -2.
*End Assembly
** 
** MATERIALS
** 
** ***************
** * MATERIALS ***
** ***************
*Material, name=MAT0
*Elastic
 3e+09, 0.2
*Expansion
 6.5e-06,
*Material, name=MAT1
*Elastic, type=ENGINEERING CONSTANTS
 2e+11, 1e+10, 1e+10,   0.3,   0.4,   0.4, 5e+09, 5e+09
 5e+09,
*Expansion, type=ORTHO
 -2e-07, 3e-06, 3e-06
** 
** BOUNDARY CONDITIONS
** 
** Name: Disp-BC-1 Type: Displacement/Rotation
*Boundary
MASTERNODE1, 1, 1
** Name: Disp-BC-2 Type: Displacement/Rotation
*Boundary
MASTERNODE1, 2, 2
** Name: Disp-BC-3 Type: Displacement/Rotation
*Boundary
MASTERNODE1, 3, 3
** 
** PREDEFINED FIELDS
** 
** Name: Field-1   Type: Temperature
*Initial Conditions, type=TEMPERATURE
ALLNODES, 0.
** ----------------------------------------------------------------
** 
** STEP: Isothermallinearperturbationstep
** 
*Step, name=Isothermallinearperturbationstep, nlgeom=NO, perturbation
Elastic material property computation
*Static
** 
** OUTPUT REQUESTS
** 
** 
** FIELD OUTPUT: F-Output-1
** 
*Output, field
*Element Output, directions=YES
S, 
** 
** FIELD OUTPUT: F-Output-2
** 
*Node Output, nset=CONSTRAINTSDRIVER0
U, 
** 
** FIELD OUTPUT: F-Output-3
** 
*Node Output, nset=CONSTRAINTSDRIVER1
U, 
** 
** FIELD OUTPUT: F-Output-4
** 
*Node Output, nset=CONSTRAINTSDRIVER2
U, 
** 
** FIELD OUTPUT: F-Output-5
** 
*Node Output, nset=CONSTRAINTSDRIVER3
U, 
** 
** FIELD OUTPUT: F-Output-7
** 
*Node Output, nset=CONSTRAINTSDRIVER4
U, 
** 
** FIELD OUTPUT: F-Output-6
** 
*Node Output, nset=CONSTRAINTSDRIVER5
U, 
*Output, history, frequency=0
** 
** LOAD CASES
** 
*Load Case, name=LOAD0
** Name: Disp-BC-4 Type: Displacement/Rotation   Scale factor: 1
*Boundary, op=NEW
MASTERNODE1, 1, 1
** Name: Disp-BC-5 Type: Displacement/Rotation   Scale factor: 1
*Boundary, op=NEW
MASTERNODE1, 2, 2
** Name: Disp-BC-6 Type: Displacement/Rotation   Scale factor: 1
*Boundary, op=NEW
MASTERNODE1, 3, 3
*End Load Case
*Load Case, name=LOAD1
** Name: Disp-BC-7 Type: Displacement/Rotation   Scale factor: 1
*Boundary, op=NEW
MASTERNODE1, 1, 1
** Name: Disp-BC-8 Type: Displacement/Rotation   Scale factor: 1
*Boundary, op=NEW
MASTERNODE1, 2, 2
** Name: Disp-BC-9 Type: Displacement/Rotation   Scale factor: 1
*Boundary, op=NEW
MASTERNODE1, 3, 3
*End Load Case
*Load Case, name=LOAD2
** Name: Disp-BC-10 Type: Displacement/Rotation   Scale factor: 1
*Boundary, op=NEW
MASTERNODE1, 1, 1
** Name: Disp-BC-11 Type: Displacement/Rotation   Scale factor: 1
*Boundary, op=NEW
MASTERNODE1, 2, 2
** Name: Disp-BC-12 Type: Displacement/Rotation   Scale factor: 1
*Boundary, op=NEW
MASTERNODE1, 3, 3
*End Load Case
*Load Case, name=LOAD3
** Name: Disp-BC-13 Type: Displacement/Rotation   Scale factor: 1
*Boundary, op=NEW
MASTERNODE1, 1, 1
** Name: Disp-BC-14 Type: Displacement/Rotation   Scale factor: 1
*Boundary, op=NEW
MASTERNODE1, 2, 2
** Name: Disp-BC-15 Type: Displacement/Rotation   Scale factor: 1
*Boundary, op=NEW
MASTERNODE1, 3, 3
*End Load Case
*Load Case, name=LOAD4
** Name: Disp-BC-16 Type: Displacement/Rotation   Scale factor: 1
*Boundary, op=NEW
MASTERNODE1, 1, 1
** Name: Disp-BC-17 Type: Displacement/Rotation   Scale factor: 1
*Boundary, op=NEW
MASTERNODE1, 2, 2
** Name: Disp-BC-18 Type: Displacement/Rotation   Scale factor: 1
*Boundary, op=NEW
MASTERNODE1, 3, 3
*End Load Case
*Load Case, name=LOAD5
** Name: Disp-BC-19 Type: Displacement/Rotation   Scale factor: 1
*Boundary, op=NEW
MASTERNODE1, 1, 1
** Name: Disp-BC-20 Type: Displacement/Rotation   Scale factor: 1
*Boundary, op=NEW
MASTERNODE1, 2, 2
** Name: Disp-BC-21 Type: Displacement/Rotation   Scale factor: 1
*Boundary, op=NEW
MASTERNODE1, 3, 3
*End Load Case
*End Step
** ----------------------------------------------------------------
** 
** STEP: Thermomechanicalstep
** 
*Step, name=Thermomechanicalstep, nlgeom=NO, perturbation
Coefficient of Thermal Expansion computation
*Static
** 
** PREDEFINED FIELDS
** 
** Name: Field-2   Type: Temperature
*Temperature
ALLNODES, 1.
** 
** OUTPUT REQUESTS
** 
** 
** FIELD OUTPUT: F-Output-8
** 
*Output, field
*Element Output, directions=YES
S, 
** 
** FIELD OUTPUT: F-Output-9
** 
*Node Output, nset=CONSTRAINTSDRIVER0
U, 
** 
** FIELD OUTPUT: F-Output-10
** 
*Node Output, nset=CONSTRAINTSDRIVER1
U, 
** 
** FIELD OUTPUT: F-Output-11
** 
*Node Output, nset=CONSTRAINTSDRIVER2
U, 
*Output, history, frequency=0
*End Step
